REMARK  Name = ZINC000000000007
REMARK  11 active torsions:
REMARK  status: ('A' for Active; 'I' for Inactive)
REMARK    1  A    between atoms: C2_2  and  C3_3
REMARK    2  A    between atoms: C3_3  and  C4_4
REMARK    3  A    between atoms: C7_7  and  O8_8
REMARK    4  A    between atoms: O8_8  and  C9_9
REMARK    5  A    between atoms: C9_9  and  C10_10
REMARK    6  A    between atoms: N12_12  and  C13_13
REMARK    7  A    between atoms: N12_12  and  C15_15
REMARK    8  A    between atoms: C13_13  and  C14_14
REMARK    9  A    between atoms: C15_15  and  C16_16
REMARK   10  A    between atoms: C17_17  and  O18_18
REMARK   11  A    between atoms: O18_18  and  C19_19
REMARK                            x       y       z     vdW  Elec       q    Type
REMARK                         _______ _______ _______ _____ _____    ______ ____
ROOT
ATOM      1  C   UNL     1       1.369  -1.702   1.144  0.00  0.00    -0.070 A 
ATOM      2  C   UNL     1       1.873  -1.289   2.362  0.00  0.00    +0.020 A 
ATOM      3  C   UNL     1       1.923  -2.168   3.428  0.00  0.00    -0.040 A 
ATOM      4  C   UNL     1       1.467  -3.467   3.276  0.00  0.00    +0.090 A 
ATOM      5  C   UNL     1       0.959  -3.884   2.049  0.00  0.00    +0.110 A 
ATOM      6  C   UNL     1       0.907  -2.996   0.987  0.00  0.00    -0.030 A 
ENDROOT
BRANCH   5   7
ATOM      7  O   UNL     1       0.509  -5.158   1.894  0.00  0.00    -0.300 OA
ATOM      8  C   UNL     1       0.002  -5.516   0.607  0.00  0.00    +0.250 C 
ENDBRANCH   5   7
BRANCH   1   9
ATOM      9  C   UNL     1       1.317  -0.740  -0.015  0.00  0.00    +0.110 C 
BRANCH   9  11
ATOM     10  C   UNL     1      -0.016   1.306   0.009  0.00  0.00    +0.010 C 
ATOM     11  C   UNL     1       0.002  -0.004   0.002  0.00  0.00    -0.040 C 
ENDBRANCH   9  11
ENDBRANCH   1   9
BRANCH   4  12
ATOM     12  O   UNL     1       1.515  -4.334   4.323  0.00  0.00    -0.280 OA
BRANCH  12  13
ATOM     13  C   UNL     1       2.048  -3.837   5.552  0.00  0.00    +0.220 C 
BRANCH  13  14
ATOM     14  C   UNL     1       2.022  -4.930   6.590  0.00  0.00    +0.520 C 
ATOM     15  N   UNL     1       2.479  -4.689   7.834  0.00  0.00    -0.610 N 
ATOM     16  O   UNL     1       1.589  -6.026   6.304  0.00  0.00    -0.510 OA
BRANCH  15  17
ATOM     17  C   UNL     1       3.002  -3.364   8.178  0.00  0.00    +0.270 C 
ATOM     18  C   UNL     1       1.864  -2.487   8.703  0.00  0.00    +0.010 C 
ENDBRANCH  15  17
BRANCH  15  19
ATOM     19  C   UNL     1       2.453  -5.751   8.842  0.00  0.00    +0.280 C 
ATOM     20  C   UNL     1       3.765  -6.537   8.789  0.00  0.00    +0.020 C 
ENDBRANCH  15  19
ENDBRANCH  13  14
ENDBRANCH  12  13
ENDBRANCH   4  12
TORSDOF 8
