REMARK  Name = ZINC000000000036
REMARK  3 active torsions:
REMARK  status: ('A' for Active; 'I' for Inactive)
REMARK    1  A    between atoms: C2_2  and  C4_4
REMARK    2  A    between atoms: C4_4  and  O6_6
REMARK    3  A    between atoms: C4_4  and  C7_7
REMARK                            x       y       z     vdW  Elec       q    Type
REMARK                         _______ _______ _______ _____ _____    ______ ____
ROOT
ATOM      1  C   UNL     1      -1.330   1.951   0.019  0.00  0.00    +0.170 C 
ENDROOT
BRANCH   1   2
ATOM      2  C   UNL     1      -2.067   1.679  -1.267  0.00  0.00    -0.070 A 
ATOM      3  C   UNL     1      -1.726   2.365  -2.418  0.00  0.00    +0.000 A 
ATOM      4  C   UNL     1      -2.403   2.115  -3.597  0.00  0.00    +0.000 A 
ATOM      5  C   UNL     1      -3.420   1.180  -3.626  0.00  0.00    -0.030 A 
ATOM      6  C   UNL     1      -3.761   0.494  -2.475  0.00  0.00    +0.000 A 
ATOM      7  C   UNL     1      -3.081   0.740  -1.297  0.00  0.00    +0.010 A 
ENDBRANCH   1   2
BRANCH   1   9
ATOM      8  O   UNL     1       0.002  -0.004   0.002  0.00  0.00    -0.690 OA
ATOM      9  C   UNL     1      -0.015   1.215   0.009  0.00  0.00    +0.480 C 
ATOM     10  O   UNL     1       1.033   1.839   0.002  0.00  0.00    -0.680 OA
ENDBRANCH   1   9
BRANCH   1  11
ATOM     11  O   UNL     1      -1.090   3.354   0.143  0.00  0.00    -0.550 OA
ATOM     12  H   UNL     1      -0.559   3.727  -0.575  0.00  0.00    +0.370 HD
ENDBRANCH   1  11
TORSDOF 3
