REMARK  Name = ZINC000000000251
REMARK  8 active torsions:
REMARK  status: ('A' for Active; 'I' for Inactive)
REMARK    1  A    between atoms: C1_1  and  C2_2
REMARK    2  A    between atoms: C2_2  and  N3_3
REMARK    3  A    between atoms: C8_8  and  C10_10
REMARK    4  A    between atoms: C10_10  and  N11_11
REMARK    5  A    between atoms: C12_12  and  C14_14
REMARK    6  A    between atoms: C14_14  and  O15_15
REMARK    7  A    between atoms: C14_14  and  C16_16
REMARK    8  A    between atoms: C14_14  and  C22_22
REMARK                            x       y       z     vdW  Elec       q    Type
REMARK                         _______ _______ _______ _____ _____    ______ ____
ROOT
ATOM      1  C   UNL     1      -3.377  -0.977  -1.430  0.00  0.00    +0.220 C 
ENDROOT
BRANCH   1   2
ATOM      2  C   UNL     1      -4.064  -1.879  -2.422  0.00  0.00    -0.120 A 
ATOM      3  C   UNL     1      -5.393  -2.215  -2.246  0.00  0.00    +0.020 A 
ATOM      4  C   UNL     1      -6.023  -3.043  -3.156  0.00  0.00    +0.010 A 
ATOM      5  C   UNL     1      -5.324  -3.534  -4.243  0.00  0.00    +0.020 A 
ATOM      6  C   UNL     1      -3.995  -3.198  -4.420  0.00  0.00    +0.010 A 
ATOM      7  C   UNL     1      -3.366  -2.366  -3.512  0.00  0.00    +0.040 A 
ENDBRANCH   1   2
BRANCH   1   8
ATOM      8  C   UNL     1      -2.761   0.192  -2.156  0.00  0.00    -0.090 A 
ATOM      9  C   UNL     1      -1.554   0.039  -2.812  0.00  0.00    +0.010 A 
ATOM     10  C   UNL     1      -0.989   1.111  -3.478  0.00  0.00    +0.010 A 
ATOM     11  C   UNL     1      -1.631   2.335  -3.488  0.00  0.00    +0.020 A 
ATOM     12  C   UNL     1      -2.839   2.487  -2.833  0.00  0.00    +0.010 A 
ATOM     13  C   UNL     1      -3.406   1.414  -2.171  0.00  0.00    +0.050 A 
ENDBRANCH   1   8
BRANCH   1  16
ATOM     14  N   UNL     1      -1.898  -1.362   0.515  0.00  0.00    -0.720 N 
ATOM     15  H   UNL     1      -2.304  -0.588   0.937  0.00  0.00    +0.410 HD
ATOM     16  C   UNL     1      -2.299  -1.747  -0.713  0.00  0.00    +0.510 C 
ATOM     17  O   UNL     1      -1.791  -2.715  -1.240  0.00  0.00    -0.500 OA
BRANCH  14  18
ATOM     18  C   UNL     1      -0.850  -2.111   1.212  0.00  0.00    +0.280 C 
BRANCH  18  23
ATOM     19  N   UNL     1       0.389  -2.284   3.333  0.00  0.00    -0.380 N 
ATOM     20  C   UNL     1      -0.204  -2.936   4.520  0.00  0.00    +0.260 C 
ATOM     21  C   UNL     1      -1.462  -2.095   4.846  0.00  0.00    +0.080 C 
ATOM     22  C   UNL     1      -1.976  -1.735   3.427  0.00  0.00    +0.080 C 
ATOM     23  C   UNL     1      -0.675  -1.549   2.624  0.00  0.00    +0.160 C 
ATOM     24  H   UNL     1       1.111  -1.642   3.623  0.00  0.00    +0.430 HD
BRANCH  19  26
ATOM     25  C   UNL     1       2.142  -3.984   3.141  0.00  0.00    +0.080 C 
ATOM     26  C   UNL     1       0.962  -3.304   2.443  0.00  0.00    +0.240 C 
ENDBRANCH  19  26
ENDBRANCH  18  23
ENDBRANCH  14  18
ENDBRANCH   1  16
BRANCH   1  27
ATOM     27  O   UNL     1      -4.332  -0.498  -0.481  0.00  0.00    -0.540 OA
ATOM     28  H   UNL     1      -4.769  -1.197   0.024  0.00  0.00    +0.390 HD
ENDBRANCH   1  27
TORSDOF 7
