REMARK  Name = ZINC000000000254
REMARK  3 active torsions:
REMARK  status: ('A' for Active; 'I' for Inactive)
REMARK    1  A    between atoms: C1_1  and  N2_2
REMARK    2  A    between atoms: C6_6  and  C7_7
REMARK    3  A    between atoms: C15_15  and  O16_16
REMARK                            x       y       z     vdW  Elec       q    Type
REMARK                         _______ _______ _______ _____ _____    ______ ____
ROOT
ATOM      1  C   UNL     1      -0.018   1.465   0.010  0.00  0.00    +0.330 C 
ATOM      2  N   UNL     1       0.002  -0.004   0.002  0.00  0.00    -0.360 N 
ATOM      3  C   UNL     1      -1.351  -0.470  -0.058  0.00  0.00    +0.230 C 
ATOM      4  C   UNL     1      -1.549  -1.815  -0.708  0.00  0.00    +0.070 C 
ATOM      5  C   UNL     1      -1.221  -2.958   0.237  0.00  0.00    -0.020 C 
ATOM      6  C   UNL     1       0.261  -2.905   0.599  0.00  0.00    +0.070 C 
ATOM      7  C   UNL     1       0.530  -1.839   1.624  0.00  0.00    -0.030 C 
ATOM      8  C   UNL     1      -0.239  -1.995   2.905  0.00  0.00    +0.110 C 
ATOM      9  C   UNL     1      -1.668  -2.406   2.667  0.00  0.00    -0.100 A 
ATOM     10  C   UNL     1      -2.557  -2.298   3.728  0.00  0.00    +0.030 A 
ATOM     11  C   UNL     1      -3.874  -2.678   3.583  0.00  0.00    -0.010 A 
ATOM     12  C   UNL     1      -4.314  -3.175   2.364  0.00  0.00    +0.120 A 
ATOM     13  C   UNL     1      -3.429  -3.273   1.305  0.00  0.00    -0.010 A 
ATOM     14  C   UNL     1      -1.488  -4.282  -0.481  0.00  0.00    +0.060 C 
ATOM     15  C   UNL     1      -2.105  -2.877   1.450  0.00  0.00    -0.060 A 
ATOM     16  C   UNL     1       0.768  -0.453   1.146  0.00  0.00    +0.270 C 
ATOM     17  H   UNL     1       0.478  -0.307  -0.835  0.00  0.00    +0.420 HD
ENDROOT
BRANCH  12  18
ATOM     18  O   UNL     1      -5.607  -3.564   2.212  0.00  0.00    -0.500 OA
ATOM     19  H   UNL     1      -6.197  -2.859   1.912  0.00  0.00    +0.400 HD
ENDBRANCH  12  18
TORSDOF 1
