REMARK  Name = ZINC000000000297
REMARK  8 active torsions:
REMARK  status: ('A' for Active; 'I' for Inactive)
REMARK    1  A    between atoms: C1_1  and  C2_2
REMARK    2  A    between atoms: C2_2  and  C3_3
REMARK    3  A    between atoms: C2_2  and  O4_4
REMARK    4  A    between atoms: C2_2  and  C21_21
REMARK    5  A    between atoms: O4_4  and  C5_5
REMARK    6  A    between atoms: C8_8  and  C9_9
REMARK    7  A    between atoms: C9_9  and  O11_11
REMARK    8  A    between atoms: C9_9  and  C12_12
REMARK                            x       y       z     vdW  Elec       q    Type
REMARK                         _______ _______ _______ _____ _____    ______ ____
ROOT
ATOM      1  C   UNL     1      -2.169  -0.244   0.937  0.00  0.00    +0.170 A 
ATOM      2  C   UNL     1      -1.740   0.538   1.999  0.00  0.00    -0.010 A 
ATOM      3  C   UNL     1      -2.622   0.876   3.007  0.00  0.00    +0.040 A 
ATOM      4  C   UNL     1      -3.932   0.434   2.958  0.00  0.00    -0.170 A 
ATOM      5  C   UNL     1      -4.362  -0.346   1.901  0.00  0.00    +0.030 A 
ATOM      6  C   UNL     1      -3.485  -0.682   0.888  0.00  0.00    -0.050 A 
ENDROOT
BRANCH   1   7
ATOM      7  O   UNL     1      -1.303  -0.578  -0.056  0.00  0.00    -0.300 OA
BRANCH   7   9
ATOM      8  C   UNL     1       0.621  -0.829   1.384  0.00  0.00    +0.030 C 
ATOM      9  C   UNL     1       0.061  -0.186   0.114  0.00  0.00    +0.030 C 
ATOM     10  C   UNL     1       0.878  -0.647  -1.095  0.00  0.00    +0.080 C 
BRANCH   9  11
ATOM     11  C   UNL     1       0.141   1.314   0.232  0.00  0.00    +0.480 C 
ATOM     12  O   UNL     1      -0.875   1.986   0.176  0.00  0.00    -0.670 OA
ATOM     13  O   UNL     1       1.223   1.856   0.384  0.00  0.00    -0.680 OA
ENDBRANCH   9  11
ENDBRANCH   7   9
ENDBRANCH   1   7
BRANCH   4  14
ATOM     14  C   UNL     1      -4.891   0.804   4.060  0.00  0.00    +0.310 C 
BRANCH  14  15
ATOM     15  C   UNL     1      -5.754   1.955   3.609  0.00  0.00    -0.100 A 
ATOM     16  C   UNL     1      -6.902   1.713   2.878  0.00  0.00    +0.030 A 
ATOM     17  C   UNL     1      -7.693   2.768   2.464  0.00  0.00    +0.020 A 
ATOM     18  C   UNL     1      -7.336   4.066   2.783  0.00  0.00    -0.040 A 
ATOM     19  C   UNL     1      -6.187   4.308   3.515  0.00  0.00    +0.020 A 
ATOM     20 CL   UNL     1      -8.330   5.392   2.265  0.00  0.00    -0.080 Cl
ATOM     21  C   UNL     1      -5.400   3.251   3.933  0.00  0.00    +0.040 A 
ENDBRANCH  14  15
BRANCH  14  22
ATOM     22  O   UNL     1      -5.719  -0.320   4.367  0.00  0.00    -0.550 OA
ATOM     23  H   UNL     1      -6.248  -0.634   3.621  0.00  0.00    +0.370 HD
ENDBRANCH  14  22
ENDBRANCH   4  14
TORSDOF 6
