REMARK  Name = ZINC000000000255
REMARK  11 active torsions:
REMARK  status: ('A' for Active; 'I' for Inactive)
REMARK    1  A    between atoms: C1_1  and  C2_2
REMARK    2  A    between atoms: C2_2  and  C3_3
REMARK    3  A    between atoms: C2_2  and  C4_4
REMARK    4  A    between atoms: C2_2  and  N5_5
REMARK    5  A    between atoms: N5_5  and  C8_8
REMARK    6  A    between atoms: C8_8  and  C9_9
REMARK    7  A    between atoms: C9_9  and  O11_11
REMARK    8  A    between atoms: C9_9  and  C12_12
REMARK    9  A    between atoms: C12_12  and  O13_13
REMARK   10  A    between atoms: O13_13  and  C14_14
REMARK   11  A    between atoms: C20_20  and  C21_21
REMARK                            x       y       z     vdW  Elec       q    Type
REMARK                         _______ _______ _______ _____ _____    ______ ____
ROOT
ATOM      1  O   UNL     1       4.948  -0.597  -3.543  0.00  0.00    -0.290 OA
ENDROOT
BRANCH   1   2
ATOM      2  C   UNL     1       6.271  -0.315  -3.648  0.00  0.00    +0.150 A 
ATOM      3  C   UNL     1       6.892   0.477  -2.697  0.00  0.00    -0.060 A 
ATOM      4  C   UNL     1       8.240   0.764  -2.806  0.00  0.00    +0.010 A 
ATOM      5  C   UNL     1       8.982   0.263  -3.866  0.00  0.00    +0.010 A 
ATOM      6  C   UNL     1       8.383  -0.527  -4.822  0.00  0.00    +0.110 A 
ATOM      7 CL   UNL     1       9.010   1.758  -1.609  0.00  0.00    -0.050 Cl
ATOM      8  C   UNL     1       7.019  -0.831  -4.721  0.00  0.00    -0.080 A 
BRANCH   8   9
ATOM      9  C   UNL     1       6.374  -1.671  -5.735  0.00  0.00    +0.020 C 
ATOM     10  C   UNL     1       6.014  -2.958  -5.561  0.00  0.00    -0.090 C 
ATOM     11  C   UNL     1       5.416  -3.519  -6.697  0.00  0.00    +0.390 C 
ATOM     12  C   UNL     1       5.368  -2.465  -7.782  0.00  0.00    +0.040 C 
ATOM     13  O   UNL     1       5.006  -4.658  -6.795  0.00  0.00    -0.450 OA
ATOM     14  C   UNL     1       6.006  -1.224  -7.130  0.00  0.00    +0.100 C 
ENDBRANCH   8   9
ENDBRANCH   1   2
BRANCH   1  15
ATOM     15  C   UNL     1       4.253  -0.038  -2.426  0.00  0.00    +0.200 C 
BRANCH  15  16
ATOM     16  C   UNL     1       2.784  -0.463  -2.476  0.00  0.00    +0.230 C 
BRANCH  16  17
ATOM     17  O   UNL     1       2.163   0.105  -3.631  0.00  0.00    -0.540 OA
ATOM     18  H   UNL     1       2.181   1.072  -3.652  0.00  0.00    +0.390 HD
ENDBRANCH  16  17
BRANCH  16  19
ATOM     19  C   UNL     1       2.068   0.031  -1.217  0.00  0.00    +0.240 C 
BRANCH  19  20
ATOM     20  N   UNL     1       0.690  -0.478  -1.207  0.00  0.00    -0.500 N 
ATOM     21  H   UNL     1       0.202  -0.144  -2.024  0.00  0.00    +0.430 HD
ATOM     22  H   UNL     1       0.703  -1.487  -1.212  0.00  0.00    +0.430 HD
BRANCH  20  24
ATOM     23  C   UNL     1      -0.019   1.526   0.010  0.00  0.00    +0.090 C 
ATOM     24  C   UNL     1       0.002  -0.004   0.002  0.00  0.00    +0.050 C 
ATOM     25  C   UNL     1      -1.433  -0.534   0.013  0.00  0.00    +0.090 C 
ATOM     26  C   UNL     1       0.742  -0.511   1.242  0.00  0.00    +0.090 C 
ENDBRANCH  20  24
ENDBRANCH  19  20
ENDBRANCH  16  19
ENDBRANCH  15  16
ENDBRANCH   1  15
TORSDOF 8
