REMARK  Name = ZINC000000000296
REMARK  4 active torsions:
REMARK  status: ('A' for Active; 'I' for Inactive)
REMARK    1  A    between atoms: C1_1  and  C2_2
REMARK    2  A    between atoms: C2_2  and  C3_3
REMARK    3  A    between atoms: C10_10  and  C11_11
REMARK    4  A    between atoms: C10_10  and  C12_12
REMARK                            x       y       z     vdW  Elec       q    Type
REMARK                         _______ _______ _______ _____ _____    ______ ____
ROOT
ATOM      1  C   UNL     1       0.780  -0.496  -1.223  0.00  0.00    +0.010 C 
ATOM      2  C   UNL     1       2.245  -0.117  -1.236  0.00  0.00    +0.530 C 
ATOM      3  N   UNL     1       2.988  -1.231  -1.277  0.00  0.00    -0.680 N 
ATOM      4  H   UNL     1       3.958  -1.215  -1.291  0.00  0.00    +0.420 HD
ATOM      5  C   UNL     1       2.281  -2.368  -1.295  0.00  0.00    +0.540 C 
ATOM      6  O   UNL     1       2.750  -3.485  -1.331  0.00  0.00    -0.470 OA
ATOM      7  O   UNL     1       2.679   1.015  -1.214  0.00  0.00    -0.470 OA
ATOM      8  C   UNL     1       0.801  -2.038  -1.266  0.00  0.00    -0.050 C 
ATOM      9  C   UNL     1       0.109  -2.556  -2.527  0.00  0.00    +0.100 C 
ENDROOT
BRANCH   8  10
ATOM     10  C   UNL     1       0.155  -2.610  -0.031  0.00  0.00    -0.070 A 
ATOM     11  C   UNL     1      -1.220  -2.570   0.112  0.00  0.00    +0.030 A 
ATOM     12  C   UNL     1      -1.813  -3.095   1.244  0.00  0.00    +0.010 A 
ATOM     13  C   UNL     1      -1.032  -3.661   2.235  0.00  0.00    +0.010 A 
ATOM     14  C   UNL     1       0.342  -3.702   2.092  0.00  0.00    +0.010 A 
ATOM     15  C   UNL     1       0.935  -3.181   0.957  0.00  0.00    +0.010 A 
ENDBRANCH   8  10
BRANCH   1  17
ATOM     16  C   UNL     1       0.011   1.525   0.028  0.00  0.00    +0.030 C 
ATOM     17  C   UNL     1       0.108  -0.001   0.059  0.00  0.00    +0.050 C 
ENDBRANCH   1  17
TORSDOF 2
