REMARK  Name = ZINC000000000250
REMARK  7 active torsions:
REMARK  status: ('A' for Active; 'I' for Inactive)
REMARK    1  A    between atoms: C1_1  and  C2_2
REMARK    2  A    between atoms: C2_2  and  C3_3
REMARK    3  A    between atoms: C6_6  and  C7_7
REMARK    4  A    between atoms: C7_7  and  C9_9
REMARK    5  A    between atoms: C9_9  and  C11_11
REMARK    6  A    between atoms: C9_9  and  C12_12
REMARK    7  A    between atoms: C12_12  and  N13_13
REMARK                            x       y       z     vdW  Elec       q    Type
REMARK                         _______ _______ _______ _____ _____    ______ ____
ROOT
ATOM      1  C   UNL     1      -5.391  -1.994   0.043  0.00  0.00    +0.410 C 
ATOM      2  O   UNL     1      -5.952  -2.205   1.097  0.00  0.00    -0.440 OA
ENDROOT
BRANCH   1   6
ATOM      3  C   UNL     1      -1.412  -0.526   0.013  0.00  0.00    -0.030 A 
ATOM      4  C   UNL     1      -2.048  -0.765   1.218  0.00  0.00    +0.010 A 
ATOM      5  C   UNL     1      -3.341  -1.243   1.236  0.00  0.00    +0.090 A 
ATOM      6  C   UNL     1      -4.010  -1.485   0.032  0.00  0.00    -0.190 A 
ATOM      7  C   UNL     1      -3.361  -1.240  -1.182  0.00  0.00    +0.060 A 
ATOM      8  C   UNL     1      -2.069  -0.757  -1.183  0.00  0.00    +0.000 A 
BRANCH   3  10
ATOM      9  C   UNL     1      -0.019   1.526   0.010  0.00  0.00    +0.040 C 
ATOM     10  C   UNL     1       0.002  -0.004   0.002  0.00  0.00    +0.060 C 
ENDBRANCH   3  10
ENDBRANCH   1   6
BRANCH   1  11
ATOM     11  C   UNL     1      -6.108  -2.254  -1.257  0.00  0.00    -0.040 C 
ATOM     12  C   UNL     1      -6.747  -0.956  -1.755  0.00  0.00    +0.080 C 
BRANCH  11  13
ATOM     13  C   UNL     1      -7.197  -3.306  -1.037  0.00  0.00    +0.270 C 
BRANCH  13  14
ATOM     14  N   UNL     1      -7.816  -3.647  -2.325  0.00  0.00    -0.380 N 
ATOM     15  C   UNL     1      -8.940  -4.563  -2.099  0.00  0.00    +0.250 C 
ATOM     16  C   UNL     1      -9.639  -4.857  -3.429  0.00  0.00    +0.050 C 
ATOM     17  C   UNL     1      -8.639  -5.502  -4.392  0.00  0.00    +0.030 C 
ATOM     18  C   UNL     1      -7.435  -4.571  -4.563  0.00  0.00    +0.060 C 
ATOM     19  C   UNL     1      -6.819  -4.289  -3.191  0.00  0.00    +0.240 C 
ATOM     20  H   UNL     1      -8.152  -2.805  -2.769  0.00  0.00    +0.420 HD
ENDBRANCH  13  14
ENDBRANCH  11  13
ENDBRANCH   1  11
TORSDOF 5
