REMARK  Name = ZINC000000000188
REMARK  8 active torsions:
REMARK  status: ('A' for Active; 'I' for Inactive)
REMARK    1  A    between atoms: C1_1  and  C2_2
REMARK    2  A    between atoms: C2_2  and  C4_4
REMARK    3  A    between atoms: C2_2  and  C21_21
REMARK    4  A    between atoms: C4_4  and  N5_5
REMARK    5  A    between atoms: C16_16  and  C17_17
REMARK    6  A    between atoms: C21_21  and  N22_22
REMARK    7  A    between atoms: N22_22  and  C24_24
REMARK    8  A    between atoms: N22_22  and  C25_25
REMARK                            x       y       z     vdW  Elec       q    Type
REMARK                         _______ _______ _______ _____ _____    ______ ____
ROOT
ATOM      1  N   UNL     1       2.170   0.214   1.585  0.00  0.00    -0.560 N 
ATOM      2  C   UNL     1       3.149  -0.557   0.963  0.00  0.00    +0.190 A 
ATOM      3  C   UNL     1       2.932  -1.923   0.818  0.00  0.00    -0.030 A 
ATOM      4  C   UNL     1       3.880  -2.719   0.202  0.00  0.00    +0.050 A 
ATOM      5  C   UNL     1       5.051  -2.161  -0.275  0.00  0.00    +0.010 A 
ATOM      6  C   UNL     1       5.277  -0.804  -0.134  0.00  0.00    +0.090 A 
ATOM      7  C   UNL     1       4.330   0.002   0.484  0.00  0.00    -0.160 A 
ATOM      8  S   UNL     1       4.646   1.725   0.657  0.00  0.00    +0.050 S 
ATOM      9  C   UNL     1       3.504   2.228   1.899  0.00  0.00    -0.130 A 
ATOM     10  C   UNL     1       3.704   3.439   2.556  0.00  0.00    +0.090 A 
ATOM     11  C   UNL     1       2.828   3.857   3.532  0.00  0.00    +0.070 A 
ATOM     12  C   UNL     1       1.730   3.061   3.868  0.00  0.00    +0.020 A 
ATOM     13  C   UNL     1       1.526   1.844   3.209  0.00  0.00    +0.020 A 
ATOM     14  C   UNL     1       2.409   1.430   2.221  0.00  0.00    +0.190 A 
ENDROOT
BRANCH  12  15
ATOM     15  C   UNL     1       0.815   3.489   4.883  0.00  0.00    +0.240 C 
ATOM     16  N   UNL     1       0.090   3.829   5.688  0.00  0.00    -0.390 NA
ENDBRANCH  12  15
BRANCH   1  17
ATOM     17  C   UNL     1       0.792  -0.286   1.563  0.00  0.00    +0.310 C 
BRANCH  17  19
ATOM     18  C   UNL     1       0.006   1.634   0.171  0.00  0.00    +0.050 C 
ATOM     19  C   UNL     1       0.127   0.110   0.244  0.00  0.00    -0.040 C 
BRANCH  19  20
ATOM     20  C   UNL     1      -1.267  -0.516   0.168  0.00  0.00    +0.250 C 
BRANCH  20  21
ATOM     21  N   UNL     1      -1.876  -0.199  -1.131  0.00  0.00    -0.390 N 
ATOM     22  C   UNL     1      -3.267  -0.672  -1.148  0.00  0.00    +0.320 C 
ATOM     23  C   UNL     1      -1.120  -0.863  -2.201  0.00  0.00    +0.320 C 
ATOM     24  H   UNL     1      -1.858   0.799  -1.276  0.00  0.00    +0.430 HD
ENDBRANCH  20  21
ENDBRANCH  19  20
ENDBRANCH  17  19
ENDBRANCH   1  17
TORSDOF 5
