REMARK  Name = ZINC000000000375
REMARK  7 active torsions:
REMARK  status: ('A' for Active; 'I' for Inactive)
REMARK    1  A    between atoms: C1_1  and  C2_2
REMARK    2  A    between atoms: C2_2  and  C3_3
REMARK    3  A    between atoms: C3_3  and  O4_4
REMARK    4  A    between atoms: C3_3  and  C5_5
REMARK    5  A    between atoms: C3_3  and  C10_10
REMARK    6  A    between atoms: C5_5  and  O6_6
REMARK    7  A    between atoms: O6_6  and  C7_7
REMARK                            x       y       z     vdW  Elec       q    Type
REMARK                         _______ _______ _______ _____ _____    ______ ____
ROOT
ATOM      1  C   UNL     1       0.695  -0.412   1.304  0.00  0.00    +0.180 C 
ENDROOT
BRANCH   1   2
ATOM      2  C   UNL     1       0.936  -1.895   1.186  0.00  0.00    -0.110 A 
ATOM      3  C   UNL     1       1.097  -2.473  -0.059  0.00  0.00    +0.020 A 
ATOM      4  C   UNL     1       1.318  -3.833  -0.167  0.00  0.00    +0.010 A 
ATOM      5  C   UNL     1       1.378  -4.616   0.971  0.00  0.00    +0.010 A 
ATOM      6  C   UNL     1       1.217  -4.038   2.216  0.00  0.00    +0.010 A 
ATOM      7  C   UNL     1       1.001  -2.677   2.324  0.00  0.00    +0.010 A 
ENDBRANCH   1   2
BRANCH   1   9
ATOM      8  C   UNL     1      -1.408  -0.615  -0.029  0.00  0.00    +0.030 C 
ATOM      9  C   UNL     1      -0.051   0.083   0.063  0.00  0.00    +0.050 C 
ENDBRANCH   1   9
BRANCH   1  10
ATOM     10  O   UNL     1      -0.090  -0.148   2.468  0.00  0.00    -0.540 OA
ATOM     11  H   UNL     1       0.322  -0.436   3.294  0.00  0.00    +0.380 HD
ENDBRANCH   1  10
BRANCH   1  12
ATOM     12  C   UNL     1       2.037   0.315   1.417  0.00  0.00    +0.230 C 
BRANCH  12  13
ATOM     13  O   UNL     1       1.804   1.743   1.537  0.00  0.00    -0.360 OA
BRANCH  13  14
ATOM     14  C   UNL     1       2.890   2.532   1.646  0.00  0.00    +0.650 C 
ATOM     15  O   UNL     1       4.001   2.040   1.642  0.00  0.00    -0.580 OA
ATOM     16  N   UNL     1       2.744   3.867   1.761  0.00  0.00    -0.830 N 
ATOM     17  H   UNL     1       3.527   4.435   1.840  0.00  0.00    +0.430 HD
ATOM     18  H   UNL     1       1.857   4.260   1.764  0.00  0.00    +0.410 HD
ENDBRANCH  13  14
ENDBRANCH  12  13
ENDBRANCH   1  12
TORSDOF 6
