REMARK  Name = ZINC000000000378
REMARK  6 active torsions:
REMARK  status: ('A' for Active; 'I' for Inactive)
REMARK    1  A    between atoms: C1_1  and  C2_2
REMARK    2  A    between atoms: C2_2  and  C3_3
REMARK    3  A    between atoms: C3_3  and  C5_5
REMARK    4  A    between atoms: C3_3  and  C8_8
REMARK    5  A    between atoms: C8_8  and  C9_9
REMARK    6  A    between atoms: C8_8  and  C10_10
REMARK                            x       y       z     vdW  Elec       q    Type
REMARK                         _______ _______ _______ _____ _____    ______ ____
ROOT
ATOM      1  C   UNL     1       0.718  -0.497  -1.257  0.00  0.00    -0.040 C 
ATOM      2 BR   UNL     1       0.745  -2.463  -1.268  0.00  0.00    -0.120 Br
ENDROOT
BRANCH   1   3
ATOM      3  C   UNL     1       2.132   0.024  -1.268  0.00  0.00    +0.530 C 
ATOM      4  O   UNL     1       2.460   0.872  -2.071  0.00  0.00    -0.520 OA
ATOM      5  N   UNL     1       3.032  -0.451  -0.385  0.00  0.00    -0.850 N 
ATOM      6  H   UNL     1       3.942  -0.116  -0.391  0.00  0.00    +0.410 HD
ATOM      7  H   UNL     1       2.770  -1.129   0.258  0.00  0.00    +0.400 HD
ENDBRANCH   1   3
BRANCH   1   8
ATOM      8  C   UNL     1      -0.022   0.009  -2.496  0.00  0.00    +0.030 C 
ATOM      9  C   UNL     1      -1.457  -0.520  -2.486  0.00  0.00    +0.040 C 
ATOM     10  C   UNL     1       0.694  -0.484  -3.755  0.00  0.00    +0.030 C 
ENDBRANCH   1   8
BRANCH   1  12
ATOM     11  C   UNL     1      -0.019   1.526   0.010  0.00  0.00    +0.040 C 
ATOM     12  C   UNL     1       0.002  -0.004   0.002  0.00  0.00    +0.060 C 
ENDBRANCH   1  12
TORSDOF 3
