REMARK  Name = ZINC000000000144
REMARK  3 active torsions:
REMARK  status: ('A' for Active; 'I' for Inactive)
REMARK    1  A    between atoms: C1_1  and  C2_2
REMARK    2  A    between atoms: C2_2  and  C4_4
REMARK    3  A    between atoms: C2_2  and  C7_7
REMARK                            x       y       z     vdW  Elec       q    Type
REMARK                         _______ _______ _______ _____ _____    ______ ____
ROOT
ATOM      1  C   UNL     1       0.707  -0.490  -1.238  0.00  0.00    -0.010 A 
ATOM      2  C   UNL     1       2.026  -0.141  -1.464  0.00  0.00    +0.040 A 
ATOM      3  C   UNL     1       2.679  -0.583  -2.596  0.00  0.00    +0.020 A 
ATOM      4  C   UNL     1       2.006  -1.385  -3.519  0.00  0.00    -0.090 A 
ATOM      5  C   UNL     1       0.678  -1.731  -3.283  0.00  0.00    -0.090 A 
ATOM      6  C   UNL     1       0.221  -2.592  -4.435  0.00  0.00    +0.140 C 
ATOM      7  C   UNL     1       1.406  -2.714  -5.361  0.00  0.00    -0.100 A 
ATOM      8  C   UNL     1       1.581  -3.371  -6.561  0.00  0.00    +0.020 A 
ATOM      9  C   UNL     1       2.801  -3.314  -7.211  0.00  0.00    -0.010 A 
ATOM     10  C   UNL     1       3.848  -2.597  -6.660  0.00  0.00    +0.000 A 
ATOM     11  C   UNL     1       3.682  -1.937  -5.460  0.00  0.00    +0.010 A 
ATOM     12  C   UNL     1       2.454  -1.990  -4.798  0.00  0.00    -0.030 A 
ATOM     13  C   UNL     1       0.036  -1.290  -2.146  0.00  0.00    +0.010 A 
ENDROOT
BRANCH   1  15
ATOM     14  C   UNL     1      -0.019   1.526   0.010  0.00  0.00    +0.030 C 
ATOM     15  C   UNL     1       0.002  -0.004   0.002  0.00  0.00    -0.070 C 
BRANCH  15  16
ATOM     16  C   UNL     1       0.731  -0.503   1.223  0.00  0.00    +0.500 C 
ATOM     17  O   UNL     1       1.730  -1.190   1.098  0.00  0.00    -0.690 OA
ATOM     18  O   UNL     1       0.321  -0.220   2.336  0.00  0.00    -0.700 OA
ENDBRANCH  15  16
ENDBRANCH   1  15
TORSDOF 2
