REMARK  Name = ZINC000000000176
REMARK  3 active torsions:
REMARK  status: ('A' for Active; 'I' for Inactive)
REMARK    1  A    between atoms: O1_1  and  C2_2
REMARK    2  A    between atoms: C2_2  and  C4_4
REMARK    3  A    between atoms: C2_2  and  C13_13
REMARK                            x       y       z     vdW  Elec       q    Type
REMARK                         _______ _______ _______ _____ _____    ______ ____
ROOT
ATOM      1  C   UNL     1       0.002  -0.004   0.002  0.00  0.00    +0.370 C 
ENDROOT
BRANCH   1   2
ATOM      2  C   UNL     1       0.707  -0.490  -1.238  0.00  0.00    +0.000 A 
ATOM      3  C   UNL     1       0.321  -1.537  -1.979  0.00  0.00    -0.030 A 
ATOM      4  C   UNL     1       1.291  -1.642  -3.076  0.00  0.00    -0.130 A 
ATOM      5  C   UNL     1       1.445  -2.502  -4.162  0.00  0.00    +0.060 A 
ATOM      6  C   UNL     1       2.499  -2.320  -5.030  0.00  0.00    -0.010 A 
ATOM      7  C   UNL     1       3.402  -1.287  -4.827  0.00  0.00    +0.050 A 
ATOM      8  C   UNL     1       3.261  -0.429  -3.757  0.00  0.00    +0.020 A 
ATOM      9  C   UNL     1       2.206  -0.595  -2.870  0.00  0.00    +0.060 A 
ATOM     10  O   UNL     1       1.812   0.068  -1.764  0.00  0.00    -0.190 OA
ENDBRANCH   1   2
BRANCH   1  11
ATOM     11  C   UNL     1       0.731  -0.503   1.223  0.00  0.00    -0.120 A 
ATOM     12  C   UNL     1       1.807   0.206   1.724  0.00  0.00    +0.040 A 
ATOM     13  C   UNL     1       2.475  -0.251   2.843  0.00  0.00    +0.030 A 
ATOM     14  C   UNL     1       2.068  -1.419   3.463  0.00  0.00    -0.030 A 
ATOM     15  C   UNL     1       0.992  -2.129   2.962  0.00  0.00    +0.030 A 
ATOM     16 CL   UNL     1       2.908  -1.994   4.870  0.00  0.00    -0.060 Cl
ATOM     17  C   UNL     1       0.320  -1.667   1.845  0.00  0.00    +0.050 A 
ENDBRANCH   1  11
BRANCH   1  18
ATOM     18  O   UNL     1      -0.017   1.425   0.010  0.00  0.00    -0.540 OA
ATOM     19  H   UNL     1       0.861   1.830   0.004  0.00  0.00    +0.380 HD
ENDBRANCH   1  18
TORSDOF 3
