REMARK  Name = ZINC000000000253
REMARK  1 active torsions:
REMARK  status: ('A' for Active; 'I' for Inactive)
REMARK    1  A    between atoms: C2_2  and  C3_3
REMARK                            x       y       z     vdW  Elec       q    Type
REMARK                         _______ _______ _______ _____ _____    ______ ____
ROOT
ATOM      1  O   UNL     1       0.161   0.009  -0.006  0.00  0.00    -0.530 OA
ATOM      2  C   UNL     1      -0.014   1.209   0.009  0.00  0.00    +0.530 C 
ATOM      3  N   UNL     1      -1.267   1.707   0.009  0.00  0.00    -0.610 N 
ATOM      4  C   UNL     1      -1.490   3.150  -0.093  0.00  0.00    +0.330 C 
ATOM      5  C   UNL     1      -2.780   3.538   0.562  0.00  0.00    +0.520 C 
ATOM      6  N   UNL     1      -3.593   2.672   1.181  0.00  0.00    -0.590 N 
ATOM      7  C   UNL     1      -4.856   3.131   1.752  0.00  0.00    +0.270 C 
ATOM      8  C   UNL     1      -4.881   2.854   3.257  0.00  0.00    +0.020 C 
ATOM      9  C   UNL     1      -3.456   3.004   3.792  0.00  0.00    +0.060 C 
ATOM     10  C   UNL     1      -2.677   1.716   3.723  0.00  0.00    -0.060 A 
ATOM     11  C   UNL     1      -2.081   1.287   4.907  0.00  0.00    +0.000 A 
ATOM     12  C   UNL     1      -1.299   0.153   4.932  0.00  0.00    +0.010 A 
ATOM     13  C   UNL     1      -1.092  -0.566   3.770  0.00  0.00    +0.000 A 
ATOM     14  C   UNL     1      -1.698  -0.156   2.600  0.00  0.00    +0.020 A 
ATOM     15  C   UNL     1      -2.515   0.967   2.585  0.00  0.00    -0.100 A 
ATOM     16  C   UNL     1      -3.266   1.256   1.313  0.00  0.00    +0.280 C 
ATOM     17  O   UNL     1      -3.108   4.706   0.531  0.00  0.00    -0.540 OA
ATOM     18  C   UNL     1      -2.425   0.809   0.107  0.00  0.00    +0.300 C 
ENDROOT
BRANCH   2  19
ATOM     19  C   UNL     1       1.168   2.142   0.020  0.00  0.00    -0.020 C 
ATOM     20  C   UNL     1       1.494   2.535   1.463  0.00  0.00    +0.020 C 
ATOM     21  C   UNL     1       2.695   3.483   1.475  0.00  0.00    +0.010 C 
ATOM     22  C   UNL     1       3.904   2.782   0.851  0.00  0.00    +0.000 C 
ATOM     23  C   UNL     1       3.578   2.390  -0.591  0.00  0.00    +0.010 C 
ATOM     24  C   UNL     1       2.377   1.442  -0.603  0.00  0.00    +0.050 C 
ENDBRANCH   2  19
TORSDOF 1
