REMARK  Name = ZINC000000000509
REMARK  1 active torsions:
REMARK  status: ('A' for Active; 'I' for Inactive)
REMARK    1  A    between atoms: C1_1  and  N2_2
REMARK                            x       y       z     vdW  Elec       q    Type
REMARK                         _______ _______ _______ _____ _____    ______ ____
ROOT
ATOM      1  C   UNL     1      -0.018   1.465   0.010  0.00  0.00    +0.190 C 
ATOM      2  N   UNL     1       0.002  -0.004   0.002  0.00  0.00    -0.540 NA
ATOM      3  C   UNL     1      -1.365  -0.550  -0.035  0.00  0.00    +0.180 C 
ATOM      4  C   UNL     1      -1.264  -2.065  -0.194  0.00  0.00    +0.230 C 
ATOM      5  N   UNL     1      -0.506  -2.659   0.925  0.00  0.00    -0.480 N 
ATOM      6  C   UNL     1      -0.453  -4.027   0.694  0.00  0.00    +0.310 A 
ATOM      7  N   UNL     1      -0.710  -4.466  -0.538  0.00  0.00    -0.520 NA
ATOM      8  C   UNL     1      -0.649  -5.746  -0.843  0.00  0.00    +0.280 A 
ATOM      9  C   UNL     1      -0.313  -6.691   0.106  0.00  0.00    -0.050 A 
ATOM     10  C   UNL     1      -0.051  -6.275   1.406  0.00  0.00    +0.090 A 
ATOM     11  C   UNL     1      -0.140  -4.923   1.689  0.00  0.00    -0.130 A 
ATOM     12  C   UNL     1       0.061  -4.429   3.088  0.00  0.00    +0.140 C 
ATOM     13  C   UNL     1       1.241  -3.512   3.206  0.00  0.00    -0.060 A 
ATOM     14  C   UNL     1       2.082  -3.779   4.291  0.00  0.00    +0.000 A 
ATOM     15  C   UNL     1       3.197  -3.013   4.539  0.00  0.00    +0.010 A 
ATOM     16  C   UNL     1       3.490  -1.955   3.699  0.00  0.00    +0.010 A 
ATOM     17  C   UNL     1       2.667  -1.694   2.629  0.00  0.00    +0.010 A 
ATOM     18  C   UNL     1       1.535  -2.477   2.365  0.00  0.00    -0.070 A 
ATOM     19  C   UNL     1       0.786  -2.059   1.128  0.00  0.00    +0.210 C 
ATOM     20  C   UNL     1       0.704  -0.526   1.177  0.00  0.00    +0.200 C 
ENDROOT
TORSDOF 0
