REMARK  Name = ZINC000000000508
REMARK  4 active torsions:
REMARK  status: ('A' for Active; 'I' for Inactive)
REMARK    1  A    between atoms: C1_1  and  C2_2
REMARK    2  A    between atoms: C2_2  and  C4_4
REMARK    3  A    between atoms: C2_2  and  C7_7
REMARK    4  A    between atoms: C10_10  and  C11_11
REMARK                            x       y       z     vdW  Elec       q    Type
REMARK                         _______ _______ _______ _____ _____    ______ ____
ROOT
ATOM      1  C   UNL     1      -1.412  -0.526   0.013  0.00  0.00    -0.020 A 
ATOM      2  C   UNL     1      -2.274  -0.201  -1.019  0.00  0.00    +0.030 A 
ATOM      3  C   UNL     1      -3.570  -0.675  -1.014  0.00  0.00    +0.050 A 
ATOM      4  C   UNL     1      -4.009  -1.484   0.033  0.00  0.00    -0.050 A 
ATOM      5  C   UNL     1      -3.136  -1.808   1.069  0.00  0.00    +0.020 A 
ATOM      6  C   UNL     1      -1.841  -1.332   1.051  0.00  0.00    -0.010 A 
ENDROOT
BRANCH   4   7
ATOM      7  C   UNL     1      -5.401  -1.997   0.043  0.00  0.00    +0.120 A 
ATOM      8  C   UNL     1      -5.953  -2.788   1.006  0.00  0.00    +0.090 A 
ATOM      9  N   UNL     1      -7.245  -3.031   0.634  0.00  0.00    -0.360 N 
ATOM     10  C   UNL     1      -8.249  -3.752   1.213  0.00  0.00    +0.220 A 
ATOM     11  C   UNL     1      -9.462  -3.836   0.628  0.00  0.00    +0.000 A 
ATOM     12  C   UNL     1      -9.708  -3.180  -0.590  0.00  0.00    +0.030 A 
ATOM     13  C   UNL     1      -8.717  -2.458  -1.179  0.00  0.00    +0.070 A 
ATOM     14  C   UNL     1      -7.455  -2.379  -0.555  0.00  0.00    +0.220 A 
ATOM     15  N   UNL     1      -6.335  -1.758  -0.891  0.00  0.00    -0.480 NA
ENDBRANCH   4   7
BRANCH   1  17
ATOM     16  C   UNL     1      -0.019   1.526   0.010  0.00  0.00    +0.030 C 
ATOM     17  C   UNL     1       0.002  -0.004   0.002  0.00  0.00    -0.060 C 
BRANCH  17  18
ATOM     18  C   UNL     1       0.707  -0.490  -1.238  0.00  0.00    +0.500 C 
ATOM     19  O   UNL     1       0.524   0.073  -2.304  0.00  0.00    -0.690 OA
ATOM     20  O   UNL     1       1.462  -1.446  -1.175  0.00  0.00    -0.700 OA
ENDBRANCH  17  18
ENDBRANCH   1  17
TORSDOF 3
