REMARK  Name = ZINC000000000142
REMARK  2 active torsions:
REMARK  status: ('A' for Active; 'I' for Inactive)
REMARK    1  A    between atoms: O1_1  and  C2_2
REMARK    2  A    between atoms: C2_2  and  C3_3
REMARK                            x       y       z     vdW  Elec       q    Type
REMARK                         _______ _______ _______ _____ _____    ______ ____
ROOT
ATOM      1  C   UNL     1       0.002  -0.004   0.002  0.00  0.00    +0.280 C 
ATOM      2  C   UNL     1       0.614  -0.533   1.281  0.00  0.00    -0.190 A 
ATOM      3  C   UNL     1       1.865  -0.392   1.839  0.00  0.00    +0.080 A 
ATOM      4  C   UNL     1       2.157  -1.002   3.046  0.00  0.00    -0.020 A 
ATOM      5  C   UNL     1       1.189  -1.752   3.688  0.00  0.00    +0.060 A 
ATOM      6  C   UNL     1      -0.066  -1.894   3.133  0.00  0.00    -0.040 A 
ATOM      7  C   UNL     1      -0.368  -1.282   1.918  0.00  0.00    +0.180 A 
ATOM      8  N   UNL     1      -1.546  -1.273   1.175  0.00  0.00    -0.580 N 
ATOM      9  C   UNL     1      -2.819  -1.923   1.536  0.00  0.00    +0.290 C 
ATOM     10  C   UNL     1      -3.941  -1.152   0.825  0.00  0.00    +0.010 C 
ATOM     11  C   UNL     1      -3.627  -1.054  -0.669  0.00  0.00    +0.220 C 
ATOM     12  N   UNL     1      -2.328  -0.405  -0.874  0.00  0.00    -0.520 NA
ATOM     13  C   UNL     1      -1.401  -0.550   0.013  0.00  0.00    +0.400 C 
ENDROOT
BRANCH   1  14
ATOM     14  C   UNL     1       0.758  -0.514  -1.198  0.00  0.00    -0.080 A 
ATOM     15  C   UNL     1       0.424  -1.732  -1.759  0.00  0.00    +0.030 A 
ATOM     16  C   UNL     1       1.116  -2.200  -2.860  0.00  0.00    +0.040 A 
ATOM     17  C   UNL     1       2.143  -1.450  -3.401  0.00  0.00    +0.040 A 
ATOM     18  C   UNL     1       2.478  -0.230  -2.840  0.00  0.00    -0.030 A 
ATOM     19 CL   UNL     1       3.768   0.713  -3.519  0.00  0.00    -0.060 Cl
ATOM     20  C   UNL     1       1.781   0.240  -1.742  0.00  0.00    +0.030 A 
ENDBRANCH   1  14
BRANCH   1  21
ATOM     21  O   UNL     1      -0.017   1.425   0.010  0.00  0.00    -0.520 OA
ATOM     22  H   UNL     1       0.861   1.830   0.004  0.00  0.00    +0.380 HD
ENDBRANCH   1  21
TORSDOF 2
