REMARK  Name = ZINC000000000092
REMARK  8 active torsions:
REMARK  status: ('A' for Active; 'I' for Inactive)
REMARK    1  A    between atoms: C1_1  and  O2_2
REMARK    2  A    between atoms: O2_2  and  C3_3
REMARK    3  A    between atoms: C5_5  and  C6_6
REMARK    4  A    between atoms: C6_6  and  C7_7
REMARK    5  A    between atoms: C7_7  and  C9_9
REMARK    6  A    between atoms: C7_7  and  N10_10
REMARK    7  A    between atoms: C14_14  and  O15_15
REMARK    8  A    between atoms: O15_15  and  C16_16
REMARK                            x       y       z     vdW  Elec       q    Type
REMARK                         _______ _______ _______ _____ _____    ______ ____
ROOT
ATOM      1  C   UNL     1       0.626  -0.619   1.042  0.00  0.00    +0.140 A 
ATOM      2  C   UNL     1       1.202   0.139   2.051  0.00  0.00    -0.010 A 
ATOM      3  C   UNL     1       1.836  -0.486   3.108  0.00  0.00    -0.100 A 
ATOM      4  C   UNL     1       1.896  -1.870   3.161  0.00  0.00    +0.070 A 
ATOM      5  C   UNL     1       1.321  -2.629   2.152  0.00  0.00    +0.020 A 
ATOM      6  C   UNL     1       0.682  -2.005   1.097  0.00  0.00    -0.090 A 
ATOM      7 BR   UNL     1      -0.103  -3.038  -0.278  0.00  0.00    +0.000 Br
ENDROOT
BRANCH   1   9
ATOM      8  C   UNL     1      -0.017   1.425   0.010  0.00  0.00    +0.250 C 
ATOM      9  O   UNL     1       0.002  -0.004   0.002  0.00  0.00    -0.300 OA
ENDBRANCH   1   9
BRANCH   4  10
ATOM     10  O   UNL     1       2.520  -2.484   4.201  0.00  0.00    -0.340 OA
ATOM     11  C   UNL     1       2.544  -3.913   4.191  0.00  0.00    +0.260 C 
ENDBRANCH   4  10
BRANCH   3  12
ATOM     12  C   UNL     1       2.461   0.338   4.204  0.00  0.00    +0.140 C 
BRANCH  12  13
ATOM     13  C   UNL     1       3.948   0.538   3.906  0.00  0.00    +0.170 C 
ATOM     14  C   UNL     1       4.556   1.476   4.951  0.00  0.00    +0.090 C 
BRANCH  13  15
ATOM     15  N   UNL     1       4.636  -0.759   3.954  0.00  0.00    -0.630 N 
ATOM     16  H   UNL     1       5.617  -0.627   3.758  0.00  0.00    +0.430 HD
ATOM     17  H   UNL     1       4.236  -1.378   3.265  0.00  0.00    +0.430 HD
ATOM     18  H   UNL     1       4.529  -1.163   4.872  0.00  0.00    +0.430 HD
ENDBRANCH  13  15
ENDBRANCH  12  13
ENDBRANCH   3  12
TORSDOF 5
