REMARK  Name = ZINC000000000200
REMARK  4 active torsions:
REMARK  status: ('A' for Active; 'I' for Inactive)
REMARK    1  A    between atoms: C1_1  and  N2_2
REMARK    2  A    between atoms: N2_2  and  C3_3
REMARK    3  A    between atoms: N2_2  and  C4_4
REMARK    4  A    between atoms: C4_4  and  C5_5
REMARK                            x       y       z     vdW  Elec       q    Type
REMARK                         _______ _______ _______ _____ _____    ______ ____
ROOT
ATOM      1  C   UNL     1      -1.312  -2.034  -0.243  0.00  0.00    +0.520 C 
ATOM      2  N   UNL     1      -2.458  -2.729  -0.378  0.00  0.00    -0.510 N 
ATOM      3  C   UNL     1      -3.684  -2.057  -0.285  0.00  0.00    +0.140 A 
ATOM      4  C   UNL     1      -3.849  -1.030   0.631  0.00  0.00    +0.040 A 
ATOM      5  C   UNL     1      -5.063  -0.372   0.721  0.00  0.00    +0.050 A 
ATOM      6  C   UNL     1      -6.116  -0.732  -0.099  0.00  0.00    +0.030 A 
ATOM      7  C   UNL     1      -5.962  -1.756  -1.018  0.00  0.00    +0.070 A 
ATOM      8  C   UNL     1      -4.750  -2.417  -1.112  0.00  0.00    -0.130 A 
ATOM      9  S   UNL     1      -4.527  -3.723  -2.278  0.00  0.00    +0.020 S 
ATOM     10  C   UNL     1      -3.312  -4.719  -1.474  0.00  0.00    -0.130 A 
ATOM     11  C   UNL     1      -3.260  -6.084  -1.696  0.00  0.00    +0.080 A 
ATOM     12  C   UNL     1      -2.299  -6.848  -1.057  0.00  0.00    +0.030 A 
ATOM     13  C   UNL     1      -1.392  -6.248  -0.203  0.00  0.00    +0.050 A 
ATOM     14  C   UNL     1      -1.439  -4.884   0.023  0.00  0.00    +0.000 A 
ATOM     15  C   UNL     1      -2.399  -4.109  -0.615  0.00  0.00    +0.150 A 
ATOM     16  O   UNL     1      -1.347  -0.863   0.074  0.00  0.00    -0.480 OA
ENDROOT
BRANCH   1  17
ATOM     17  C   UNL     1       0.013  -2.709  -0.486  0.00  0.00    +0.220 C 
BRANCH  17  19
ATOM     18  C   UNL     1       2.404  -2.329  -0.531  0.00  0.00    +0.200 C 
ATOM     19  N   UNL     1       1.077  -1.698  -0.534  0.00  0.00    -0.530 NA
ATOM     20  C   UNL     1       0.915  -0.818  -1.698  0.00  0.00    +0.210 C 
ENDBRANCH  17  19
ENDBRANCH   1  17
TORSDOF 2
