REMARK  Name = ZINC000000000022
REMARK  7 active torsions:
REMARK  status: ('A' for Active; 'I' for Inactive)
REMARK    1  A    between atoms: C2_2  and  C3_3
REMARK    2  A    between atoms: C2_2  and  C4_4
REMARK    3  A    between atoms: C4_4  and  N5_5
REMARK    4  A    between atoms: N5_5  and  C6_6
REMARK    5  A    between atoms: C9_9  and  C10_10
REMARK    6  A    between atoms: C10_10  and  C12_12
REMARK    7  A    between atoms: C10_10  and  C13_13
REMARK                            x       y       z     vdW  Elec       q    Type
REMARK                         _______ _______ _______ _____ _____    ______ ____
ROOT
ATOM      1  C   UNL     1       2.888  -1.782   1.595  0.00  0.00    +0.190 A 
ATOM      2  C   UNL     1       3.714  -2.132   0.535  0.00  0.00    -0.090 A 
ATOM      3  C   UNL     1       4.891  -2.815   0.775  0.00  0.00    +0.030 A 
ATOM      4  C   UNL     1       5.245  -3.150   2.069  0.00  0.00    -0.070 A 
ATOM      5  C   UNL     1       4.425  -2.803   3.127  0.00  0.00    +0.050 A 
ATOM      6  C   UNL     1       3.250  -2.115   2.894  0.00  0.00    -0.080 A 
ENDROOT
BRANCH   1   7
ATOM      7  N   UNL     1       1.698  -1.091   1.356  0.00  0.00    -0.750 N 
ATOM      8  H   UNL     1       1.123  -0.843   2.097  0.00  0.00    +0.390 HD
BRANCH   7   9
ATOM      9  C   UNL     1       1.317  -0.740  -0.015  0.00  0.00    +0.280 C 
BRANCH   9  11
ATOM     10  C   UNL     1      -0.016   1.306   0.009  0.00  0.00    +0.030 C 
ATOM     11  C   UNL     1       0.002  -0.004   0.002  0.00  0.00    -0.140 C 
ATOM     12  C   UNL     1      -1.293  -0.775   0.010  0.00  0.00    +0.080 C 
ENDBRANCH   9  11
ENDBRANCH   7   9
ENDBRANCH   1   7
BRANCH   4  13
ATOM     13  C   UNL     1       6.529  -3.896   2.327  0.00  0.00    -0.060 C 
ATOM     14  C   UNL     1       6.217  -5.230   3.007  0.00  0.00    +0.030 C 
BRANCH  13  15
ATOM     15  C   UNL     1       7.417  -3.071   3.223  0.00  0.00    +0.500 C 
ATOM     16  O   UNL     1       7.358  -1.854   3.188  0.00  0.00    -0.690 OA
ATOM     17  O   UNL     1       8.195  -3.621   3.984  0.00  0.00    -0.700 OA
ENDBRANCH  13  15
ENDBRANCH   4  13
TORSDOF 5
